     147
 i =       25, E =    -11319.9594591058
 Au        14.4333128779       14.4321630924       14.5784898879
 Pt        16.6972884164       14.6604331514       13.1149476704
 Pt        16.7557866387       14.3591028687       15.8833328627
 Au        12.1480431147       14.4814972942       13.0414746718
 Au        12.0892351835       14.4565518982       15.8963748631
 Pt        12.9144463781       16.8500846613       14.9039320824
 Pt        15.6757485675       16.8029047116       14.6428379091
 Au        13.0135488417       12.1126305189       14.4878530577
 Au        15.8661940259       11.9737036385       14.6679403247
 Pt        14.6370336108       12.9725816519       16.9176083979
 Pt        14.4708047290       15.7534322305       16.9055194281
 Au        14.5270037841       13.0394069295       12.2465433685
 Au        14.3813927205       15.9224563885       12.2623703728
 Pt        18.8495772367       14.5756342762       11.5624716460
 Pt        19.0284876333       14.4202438063       14.3963704935
 Au        19.0386439601       14.2401022091       17.2563605874
 Au         9.8996849524       14.4285030395       11.4957913153
 Pt         9.7234167804       14.2032638836       14.4040608587
 Pt         9.7336532839       14.3570703590       17.0956865498
 Au        11.2294753994       19.2489716614       14.9157502879
 Au        14.2686977121       19.2190854304       14.7831794511
 Pt        17.0840036901       19.0214428928       14.6289720007
 Pt        11.4738914163        9.8429945621       14.4860109938
 Au        14.4505594013        9.6156184139       14.3371003769
 Au        17.2678327966        9.5294867108       14.8383175553
 Pt        14.4950655672       11.6237221480       19.1211200216
 Pt        14.1857972908       14.3555543706       19.1734752078
 Au        14.2693328531       17.2396563407       19.1194214923
 Au        14.5193615671       11.5694519451        9.8635954925
 Pt        14.3625951772       14.4423297970        9.7793689528
 Pt        14.4085826040       17.0760551586        9.8395430699
 Au        17.0852882568       12.3793875995       18.3028305175
 Au        16.6700852810       15.3452597748       18.5103716991
 Pt        16.7005053238       13.0965573543       10.6678955254
 Pt        16.7012547934       15.8566315610       10.6275903821
 Au        12.0564690293       12.8289965675       18.0659301044
 Au        11.8770752806       15.9002701277       18.2938377092
 Pt        12.1750665695       13.0057060936       10.6841921642
 Pt        12.1430886206       15.7847808192       10.5876389130
 Au        18.1961262258       16.9385633217       13.0682862198
 Au        18.1275724563       16.7038819358       15.9376332531
 Pt        10.6383033167       16.7166630932       13.1302182513
 Pt        10.3541016491       16.7152114499       15.7597377329
 Au        17.9722022389       12.1761688350       12.9972175836
 Au        18.4550891158       11.9518295060       15.8228671831
 Pt        10.6853680991       12.0510215315       12.9975864080
 Pt        10.5839038599       12.0400867928       15.7792555983
 Au        12.4899118683       18.4552275901       17.2506868524
 Au        15.7878712775       18.1996981691       16.9875638643
 Pt        12.8607860827       10.6114702258       16.7017347035
 Pt        15.5507333003       10.3791766139       16.9554210931
 Au        12.8661288064       18.1874507275       12.4722584135
 Au        15.7892769633       18.3034170658       12.2232336418
 Pt        13.0322115623       10.7155383159       12.0988881228
 Pt        15.8016839511       10.6384481097       12.1504669187
 Au        21.2405524060       14.4737289193       10.0712007522
 Pt        21.2139231549       14.5329204900       12.9182908223
 Au        21.5903270087       14.6094151716       15.6809133256
 Pt        21.3069562405       14.5555160322       18.5502613459
 Au         7.5391734208       14.3969753493       10.0394994317
 Pt         7.5358565836       14.0200369883       12.9076635177
 Au         7.0952166859       14.0140082653       15.7215037424
 Pt         7.6162298973       14.2604329636       18.5494197344
 Au        10.1628680332       21.5345278934       13.6718742443
 Pt        12.9100920679       21.3692919184       13.8475089287
 Au        15.7241702446       21.5471853641       14.0679257230
 Pt        18.5505958506       21.1380069566       14.5391924435
 Au         9.9652014854        7.5068094770       14.4948209163
 Pt        12.7804902620        7.5014218867       14.3566927720
 Au        15.8639578901        7.1265224894       14.0653314773
 Pt        18.9151722460        7.7412502577       13.6965479854
 Au        14.2844026881       10.2017608273       21.3945353703
 Pt        14.0710950721       13.0811105835       21.4609167555
 Au        14.6001416967       15.8125579316       21.6216472764
 Pt        14.9040547033       18.7211805608       21.2195045300
 Au        14.4036610930       10.1208307620        7.4176440778
 Pt        14.3342248869       12.9855157044        7.5159707263
 Au        14.3298938981       15.7179370053        7.1232400369
 Pt        14.3183132104       18.4480798889        7.5802749032
 Au        19.1780150300       13.2566380939       20.0111784038
 Au        16.6196114145       12.0843266693       21.0522529816
 Pt        19.1766973927       16.0084268032       19.4907487331
 Au        17.1758366076       14.8230757041       21.3014131437
 Pt        17.0142236538       17.3708989028       20.3404482464
 Pt        18.8664029435       13.0450669038        9.2019745639
 Au        16.8302327683       11.5189003335        8.0869203275
 Au        19.0509768029       15.8916447884        8.9425068300
 Pt        16.6096805679       14.3717987080        8.2278127159
 Au        16.7501722999       17.2318244434        8.1202372182
 Pt         9.7384995744       12.9485333573       19.5402822924
 Pt        11.9455929668       11.5577553343       20.4793830282
 Au         9.5827533768       15.7159686977       19.9760791580
 Pt        11.8375674570       14.2162224294       20.6786217669
 Au        12.0854917844       16.9672694491       20.9647306509
 Au         9.7122217502       12.8328208744        9.0103140286
 Pt        12.1381281832       11.5989484886        8.4351926159
 Pt         9.8720277952       15.8837143702        9.1152622050
 Au        11.8670254495       14.3525305264        7.8728217252
 Pt        12.0663175743       17.1611902348        8.2954963429
 Au        19.7949079042       19.2289484484       12.9489528352
 Au        20.5532360273       16.9356865291       11.4320221420
 Pt        19.6657579340       18.9698392650       15.8269750572
 Au        20.9670551522       16.9837498421       14.3659375992
 Pt        20.5152283935       16.7648257638       17.2234869300
 Pt         9.5419539779       19.0345612216       12.5938564331
 Au         8.3225433624       16.8565742480       11.3785139263
 Au         8.4303979368       18.8114843984       15.1414737481
 Pt         8.0768015645       16.2883756108       14.1459502413
 Au         7.7485359634       16.5513961235       16.9312241449
 Pt        19.6176379894       10.0506477194       12.6353440862
 Pt        20.2867627301       12.2532322078       11.3996174261
 Au        20.1716258725        9.7275265905       15.3501177316
 Pt        20.7350415377       12.1716425329       14.0361546075
 Au        21.1068485654       12.0858422068       16.8319454933
 Au         9.1162747047        9.5790822289       12.7651222385
 Pt         8.5175042174       11.9713968039       11.4814902767
 Pt         9.1431999286        9.8243326273       15.9743583033
 Au         7.9039505011       11.6474580854       14.3275283073
 Pt         8.3744506457       11.9950428839       17.2985137324
 Au        13.6594129804       20.1730412938       19.1125894837
 Au        12.4489889262       21.2438856874       16.5973909720
 Pt        16.3691523909       19.6497336554       19.1476759180
 Au        15.1744901415       21.2782917745       16.9122956861
 Pt        17.6688484883       20.3761373220       16.9074432570
 Pt        12.7320422212        9.4081835108       19.0179017972
 Au        11.1641630983        8.1894980570       17.0005016386
 Au        15.4170972455        8.7667103468       19.2075831740
 Pt        13.8934133074        8.1359684115       16.7232033264
 Au        16.5606689953        7.6445927086       16.8272858511
 Pt        13.0942629979       19.3609436688        9.7338163719
 Pt        11.6521652233       20.4315006970       11.6081848594
 Au        15.9265277595       19.6559601552        9.6444483045
 Pt        14.3489060987       20.6522608331       11.7546562389
 Au        17.4357176152       20.5495376127       11.9599653458
 Au        12.9305201322        9.0857583003        9.6488426458
 Pt        11.6478442852        8.4943481922       12.1220570344
 Pt        15.9194714149        9.2447989678        9.7672623975
 Au        14.4065749557        7.9506761707       11.8002793778
 Pt        17.2795362523        8.5531446703       11.8853101800
 Au        18.2099233120        9.8256313240       17.6878847491
 Au        18.7726661601       18.4726508220       18.4910028503
 Pt        18.1455342984       10.6961855043       10.4706214872
 Pt        18.1368544023       18.1380898440       10.5054795055
 Au        10.1606079918       10.3329384154       18.6112521537
 Au         9.8357647162       17.9323305664       18.1969605961
 Pt        10.7428189469       10.6587572495       10.6219584411
 Pt        10.7358740467       18.1201834707       10.4197096045