     147
 i =       26, E =    -11232.9809244138
 Au        14.3978921377       14.3494362816       14.3895917746
 Pt        16.7023262742       14.3464483107       12.9334690437
 Au        16.6916367030       14.3258918944       15.8352048171
 Pt        12.0938659838       14.3021960623       12.9688761005
 Au        12.0790936007       14.2999865470       15.8135764244
 Pt        12.9338152174       16.6538007741       14.3675578564
 Au        15.8353506859       16.6520367372       14.3756889826
 Pt        12.9365516688       12.0699313945       14.3544643778
 Au        15.8187811526       12.0357659817       14.3425313787
 Pt        14.3830014314       12.8892756561       16.6916854630
 Au        14.3593250430       15.7961175539       16.6800338144
 Pt        14.3598092218       12.9255063855       12.0917764955
 Au        14.3612079366       15.7824517575       12.0853631542
 Pt        18.9534039663       14.4109109056       11.5608618908
 Au        19.0848998575       14.4018301980       14.3819274711
 Pt        18.8945863451       14.3427093090       17.3264342942
 Au         9.8194170770       14.3314883237       11.3965536750
 Pt         9.7572161582       14.4172777358       14.2349559421
 Au         9.9207287569       14.3101092129       17.4010885657
 Pt        11.5838583050       18.9312243655       14.4043753533
 Au        14.3711764409       19.0555564007       14.4682243115
 Pt        17.2996897218       18.8833999154       14.3872632819
 Au        11.3522897893        9.8024588120       14.4100397803
 Pt        14.2050477354        9.7402649249       14.3845391466
 Au        17.4601879987        9.9185525338       14.3506922347
 Pt        14.4285842573       11.5128322798       18.9378696348
 Au        14.4276866326       14.3405811630       19.0790788098
 Pt        14.3486126443       17.2858492705       18.8855371661
 Au        14.4368704975       11.3652258809        9.8285490055
 Pt        14.4000046892       14.2192127124        9.7517947344
 Au        14.3437474464       17.4270034076        9.9524427276
 Pt        16.7137515645       12.9526176018       18.1908224478
 Au        16.7647705396       15.8329740787       18.2309260535
 Pt        16.6915196429       13.0131179069       10.6521356441
 Au        16.7389854329       15.9023305242       10.6313024293
 Pt        12.1442059447       12.7988864632       18.2049431773
 Au        12.0543876552       15.7514690349       18.2873617112
 Pt        12.1056196993       12.8876824635       10.6215602236
 Au        12.0232791274       15.8348925070       10.6180056709
 Pt        18.1647711479       16.7073927437       12.9757740078
 Au        18.2453026574       16.7430400645       15.8361731803
 Pt        10.6807891016       16.6515814572       12.9942870247
 Au        10.6398424592       16.7061716683       15.8932741254
 Pt        18.2193264655       12.1308480777       12.8298314124
 Au        18.2969776832       12.0224111300       15.8887833613
 Pt        10.6168057995       12.0580663755       12.9090836344
 Au        10.5763606750       11.9616870661       15.9431062718
 Pt        12.9577816639       18.1363359028       16.7290617922
 Au        15.8360142017       18.2167232653       16.7812191375
 Pt        13.0087779978       10.6386967070       16.6704358263
 Au        15.9488393192       10.6159029779       16.7500342108
 Pt        12.8727507276       18.1927335898       12.1537081743
 Au        15.7947844197       18.2797032293       12.0884564802
 Pt        12.8996353593       10.6449388650       12.0828316394
 Au        15.9845823609       10.5813583780       11.9814781393
 Au        21.3050713061       14.4550688814       10.1822527203
 Au        21.5549346411       14.4763882530       13.0791338299
 Pt        21.3023254776       14.5554644602       15.9635085089
 Pt        21.1290313563       14.4354951065       18.6149630455
 Au         7.4296090004       14.3877747505       10.0978107358
 Au         7.2081843275       14.4542298506       12.9492529749
 Pt         7.5911034580       14.4414402938       15.7353367604
 Pt         7.5053858098       14.4194756242       18.4791104883
 Au        10.2059710812       21.2913036450       14.4128548676
 Au        13.0811159072       21.5534385864       14.3441531326
 Pt        15.9448071733       21.2799950346       14.4053382445
 Pt        18.6007511525       21.1316547047       14.4127462047
 Au        10.0237749219        7.4282215859       14.5802938255
 Au        12.9098185345        7.2151615004       14.3566245945
 Pt        15.7212442668        7.5963722511       14.3753506292
 Pt        18.4613830072        7.4708120967       14.3932797645
 Au        14.4349131077       10.1760194577       21.3181800077
 Au        14.4141273314       13.0798819133       21.5742263625
 Pt        14.4258460072       15.9627041782       21.2795974371
 Pt        14.3957253354       18.6190535750       21.1145210592
 Au        14.4985699263       10.1036018215        7.4236435271
 Au        14.3707598326       12.9852909901        7.1934456373
 Pt        14.3598898655       15.7811082737        7.6287468547
 Pt        14.3536091195       18.4856769463        7.5147896570
 Au        19.0859386085       12.9054621124       19.7755262074
 Pt        16.7106759175       11.6115581133       20.4487289607
 Au        19.1310763806       16.1041008269       19.8234267557
 Au        16.8906951762       14.4911119135       20.9033781075
 Pt        16.6839890243       17.3908064399       20.4442670361
 Au        19.0478790974       13.1047773041        9.0031857673
 Pt        16.7266924608       11.7683553427        8.2983504201
 Au        19.0743616016       16.0896741246        9.0283512224
 Pt        16.6629036523       14.4822053705        8.1716564329
 Pt        16.6339548809       17.2298580618        8.2603620310
 Au         9.6423384845       12.7240962875       19.7010389590
 Pt        12.0986830867       11.6219885791       20.5087238436
 Au         9.5578950249       16.1723890964       19.6850872398
 Au        11.8908488142       14.4484451377       20.8518683050
 Pt        12.0870320005       17.3436981398       20.4752979783
 Au         9.7161442264       12.9438823881        8.9258196358
 Pt        12.0816205973       11.6502338777        8.3121889351
 Au         9.6254060774       16.0548281846        8.9978469273
 Pt        12.0742115513       14.4083993273        8.2055775530
 Pt        12.0666743410       17.1631935540        8.2469552849
 Au        19.7886156713       19.0968312657       12.9152304595
 Pt        20.3674658128       16.7527504243       11.5409101243
 Au        19.7994913226       19.1651106259       16.0847670346
 Au        20.9082080730       16.9480275051       14.4755088123
 Pt        20.4366200024       16.7456372058       17.3998486291
 Au         9.0754175608       19.0606858114       12.9827810295
 Pt         8.4297335107       16.7476151031       11.6357838133
 Au         9.0491269083       19.0785575403       16.0070301781
 Pt         8.1931476525       16.7249048452       14.4122749418
 Pt         8.2709085468       16.6779662406       17.1838466777
 Au        19.6269154347        9.6008119327       12.5821895625
 Pt        20.4742242424       12.0921660212       11.5350856573
 Au        19.7558928072        9.5618563744       16.1129000068
 Au        20.7805997283       11.8690249468       14.3460228454
 Pt        20.6575830762       12.1790822826       17.1791770959
 Au         9.0030923358        9.6471253780       12.8577162061
 Pt         8.2701890445       12.0401410950       11.6813966055
 Au         8.8407495281        9.7019666513       16.0013164209
 Pt         8.2265937633       12.1250913026       14.3883834316
 Pt         8.0967046920       12.1495027923       17.1105968819
 Au        12.9175515960       19.8113094772       19.0664674062
 Pt        11.5552466010       20.3692078021       16.7105617464
 Au        16.0329664061       19.8509766248       19.1313427278
 Au        14.4477137169       20.9195813956       16.8590473626
 Pt        17.3373009508       20.4728715471       16.6912121175
 Au        12.9891806071        9.0596873988       19.0725113397
 Pt        11.7117100769        8.3221375097       16.7446612285
 Au        15.9811406475        9.0043511246       19.0809196415
 Pt        14.4349427681        8.1864641227       16.6657759420
 Pt        17.1744410908        8.2079165086       16.6545546413
 Au        12.6416883883       19.6623245607        9.5894526752
 Pt        11.5335219721       20.4152793728       12.0340645516
 Au        16.1627694517       19.7184633509        9.5758983540
 Au        14.4015040818       20.7956582486       11.8516830855
 Pt        17.3281772032       20.5025718004       12.1034715976
 Au        12.8386128707        9.0414681137        9.6441732780
 Pt        11.6202171567        8.3584877633       12.0372203542
 Au        16.0105819234        8.8855126906        9.6833280009
 Pt        14.3601865314        8.2561620288       12.0640587656
 Pt        17.1015565660        8.0973125218       12.1333587616
 Au        18.4258778777       10.4319251517       18.4618749113
 Pt        18.2606836870       18.3143628720       18.2906967065
 Au        18.3774126717       10.5347646076       10.2180207510
 Pt        18.2948707849       18.2956169671       10.6403501593
 Au        10.4690501134       10.3209294227       18.3741629642
 Pt        10.6278482466       18.3070370636       18.2649156842
 Au        10.4169298218       10.5021414164       10.4309639049
 Pt        10.4920604257       18.2219737610       10.6114759900